Version 4
SHEET 1 956 680
WIRE 224 -96 224 -192
WIRE 336 16 192 16
WIRE 416 16 336 16
WIRE 528 16 416 16
WIRE 192 48 192 16
WIRE 416 64 416 16
WIRE -16 80 -96 80
WIRE 144 80 64 80
WIRE 336 80 336 16
WIRE 720 80 720 32
WIRE 720 80 688 80
WIRE 864 80 720 80
WIRE -96 96 -96 80
WIRE 144 128 144 80
WIRE 528 144 528 16
WIRE 416 160 416 144
WIRE -208 192 -320 192
WIRE -96 192 -96 176
WIRE -96 192 -128 192
WIRE 192 192 192 144
WIRE 192 192 -96 192
WIRE 336 192 336 144
WIRE 336 192 192 192
WIRE 688 192 688 80
WIRE 864 224 864 80
WIRE -320 240 -320 192
WIRE 192 240 192 192
WIRE 0 304 -96 304
WIRE 144 304 80 304
WIRE 144 320 144 304
WIRE 416 320 416 224
WIRE 528 320 528 224
WIRE 688 320 688 272
WIRE 864 352 864 304
WIRE -320 368 -320 320
WIRE 192 384 192 336
FLAG 416 320 0
FLAG -320 368 0
FLAG -96 384 0
FLAG 192 384 0
FLAG 528 320 0
FLAG 864 432 0
FLAG 688 320 0
SYMBOL SpecialFunctions\\EPC2204 112 320 R0
SYMATTR InstName U1
SYMBOL ind -112 176 R90
WINDOW 0 5 56 VBottom 2
WINDOW 3 32 56 VTop 2
SYMATTR InstName L1
SYMATTR Value 2.2µ
SYMATTR SpiceLine Rser=2m
SYMBOL SpecialFunctions\\EPC2204 112 128 R0
SYMATTR InstName U2
SYMBOL cap 400 160 R0
SYMATTR InstName C1
SYMATTR Value 66µ
SYMBOL voltage -320 224 R0
SYMATTR InstName V1
SYMATTR Value 20
SYMBOL voltage -96 80 R0
WINDOW 3 -164 -118 Left 2
WINDOW 123 0 0 Left 0
WINDOW 39 0 0 Left 0
SYMATTR InstName V2
SYMATTR Value PULSE(0 5 {D/Fs} 10n 10n {(1-D)/Fs-dd} {1/Fs})
SYMBOL res 80 64 R90
WINDOW 0 0 56 VBottom 2
WINDOW 3 32 56 VTop 2
SYMATTR InstName R1
SYMATTR Value 1
SYMBOL voltage -96 288 R0
WINDOW 3 -88 144 Left 2
WINDOW 123 0 0 Left 0
WINDOW 39 0 0 Left 0
SYMATTR InstName V3
SYMATTR Value PULSE(0 5 0 10n 10n {D/Fs-dd} {1/Fs})
SYMBOL schottky 352 144 R180
WINDOW 0 24 64 Left 2
WINDOW 3 24 0 Left 2
SYMATTR InstName D1
SYMATTR Value 1N5817
SYMATTR Description Diode
SYMATTR Type diode
SYMBOL res 400 48 R0
SYMATTR InstName R2
SYMATTR Value 10m
SYMBOL res 512 128 R0
SYMATTR InstName R3
SYMATTR Value 4
SYMBOL res 96 288 R90
WINDOW 0 0 56 VBottom 2
WINDOW 3 32 56 VTop 2
SYMATTR InstName R4
SYMATTR Value 1
SYMBOL current 688 272 R180
WINDOW 0 24 80 Left 2
WINDOW 3 24 0 Left 2
SYMATTR InstName I1
SYMATTR Value 2.5W
SYMBOL voltage 864 336 R0
SYMATTR InstName Tamb
SYMATTR Value 25
SYMBOL res 848 208 R0
SYMATTR InstName JA
SYMATTR Value 67
TEXT -216 0 Left 2 !.param D=0.5\n.param Fs=500k
TEXT -354 452 Left 2 !.tran 10m
TEXT -224 56 Left 2 !.param dd=20n
TEXT 80 -152 Left 2 ;LS=1.87W
TEXT 88 -112 Left 2 ;HS=1W
TEXT 48 0 Left 2 !.temp 125
TEXT 80 -184 Left 2 ;T=25
TEXT 248 -152 Left 2 ;LS=2.5W
TEXT 728 32 Left 2 ;192C
TEXT 624 0 Left 2 ;Heatsking required
