Version 4
SHEET 1 2900 740
WIRE -64 -80 -112 -80
WIRE -64 -48 -64 -80
WIRE -64 -48 -160 -48
WIRE 96 -48 -64 -48
WIRE -64 -16 -64 -48
WIRE 944 32 816 32
WIRE 1152 32 944 32
WIRE 368 48 256 48
WIRE 640 48 640 32
WIRE 640 48 368 48
WIRE 816 64 816 32
WIRE 1152 64 1152 32
WIRE 96 80 96 -48
WIRE 256 80 256 48
WIRE -64 96 -64 64
WIRE 368 112 368 48
WIRE -160 128 -160 -48
WIRE -160 128 -208 128
WIRE -80 128 -160 128
WIRE 944 128 944 32
WIRE 640 144 640 48
WIRE 816 176 816 144
WIRE 1024 176 1008 176
WIRE 1152 176 1152 128
WIRE 1152 176 1104 176
WIRE 464 192 368 192
WIRE 576 192 464 192
WIRE 1152 192 1152 176
WIRE -208 208 -208 128
WIRE 256 224 256 160
WIRE 96 240 96 160
WIRE 96 240 -144 240
WIRE 1232 240 1152 240
WIRE 96 256 96 240
WIRE -80 272 -80 128
WIRE -144 288 -144 240
WIRE -112 288 -144 288
WIRE 368 288 368 192
WIRE 368 288 272 288
WIRE 32 304 -48 304
WIRE 1152 304 1152 288
WIRE -208 320 -208 288
WIRE -112 320 -208 320
WIRE 464 320 464 192
WIRE -208 352 -208 320
WIRE 944 352 944 224
WIRE 1088 352 944 352
WIRE 640 368 640 240
WIRE 640 368 608 368
WIRE -80 384 -80 336
WIRE 96 384 96 352
WIRE 144 384 96 384
WIRE 944 384 944 352
WIRE 640 400 640 368
WIRE 96 416 96 384
WIRE 272 416 272 288
WIRE 1152 416 1152 400
WIRE 1200 416 1152 416
WIRE -208 448 -208 432
WIRE 368 448 368 288
WIRE 368 448 304 448
WIRE 1152 448 1152 416
WIRE 368 464 368 448
WIRE 944 480 944 464
WIRE 96 512 96 480
WIRE 464 512 464 416
WIRE 640 512 640 480
WIRE 640 512 464 512
WIRE 704 512 640 512
WIRE 272 528 272 480
WIRE 464 528 464 512
WIRE 640 544 640 512
WIRE 640 624 640 608
FLAG -64 96 0
FLAG -112 -80 v+
FLAG -80 384 0
FLAG -208 448 0
FLAG 96 512 0
FLAG 256 224 0
FLAG 704 512 d
FLAG 640 624 0
FLAG 144 384 c
FLAG 368 544 0
FLAG 272 528 0
FLAG 816 176 0
FLAG 1200 416 k
FLAG 1152 512 0
FLAG 944 480 0
FLAG 1232 240 cu
SYMBOL voltage -64 -32 R0
SYMATTR InstName V1
SYMATTR Value 16
SYMBOL OpAmps\\UniversalOpAmp2 -80 304 R0
SYMATTR InstName U1
SYMBOL res 80 64 R0
SYMATTR InstName R1
SYMATTR Value 5
SYMBOL res -224 192 R0
SYMATTR InstName R2
SYMATTR Value 1k
SYMBOL res -224 336 R0
SYMATTR InstName R3
SYMATTR Value 36k
SYMBOL pnp 32 352 M180
SYMATTR InstName Q1
SYMATTR Value QST2
SYMBOL cap 80 416 R0
WINDOW 3 45 54 Left 2
SYMATTR InstName C1
SYMATTR Value 10
SYMBOL voltage 256 64 R0
SYMATTR InstName V2
SYMATTR Value 24
SYMBOL npn 576 144 R0
SYMATTR InstName Q2
SYMATTR Value ZTX1048A
SYMBOL npn 528 320 M0
SYMATTR InstName Q3
SYMATTR Value ZTX1048A
SYMBOL res 624 384 R0
SYMATTR InstName R6
SYMATTR Value 7
SYMBOL res 352 96 R0
SYMATTR InstName R7
SYMATTR Value 1k
SYMBOL cap 624 544 R0
SYMATTR InstName C2
SYMATTR Value 10
SYMBOL References\\LT1009 272 448 R0
SYMATTR InstName U2
SYMBOL res 352 448 R0
SYMATTR InstName R4
SYMATTR Value 1k
SYMBOL pnp 1008 224 R180
SYMATTR InstName Q4
SYMATTR Value 2N2907
SYMBOL voltage 816 48 R0
WINDOW 123 0 0 Left 0
WINDOW 39 0 0 Left 0
SYMATTR InstName V3
SYMATTR Value 20
SYMBOL cap 1136 448 R0
SYMATTR InstName C3
SYMATTR Value 10
SYMBOL res 1120 160 R90
WINDOW 0 0 56 VBottom 2
WINDOW 3 32 56 VTop 2
SYMATTR InstName R5
SYMATTR Value 1k
SYMBOL pnp 1088 400 M180
WINDOW 0 69 74 Left 2
WINDOW 3 53 40 Left 2
SYMATTR InstName Q5
SYMATTR Value 2N2907
SYMBOL res 928 368 R0
SYMATTR InstName R8
SYMATTR Value 1k
SYMBOL zener 1136 64 R0
WINDOW 3 61 57 Left 2
SYMATTR InstName D1
SYMATTR Value BZX84C12L
SYMBOL res 624 352 R90
WINDOW 0 0 56 VBottom 2
WINDOW 3 32 56 VTop 2
SYMATTR InstName R9
SYMATTR Value 1k
SYMBOL CurrentSensor 1152 240 R0
SYMATTR InstName X1
TEXT -98 440 Left 2 !.tran 3600
TEXT -128 512 Left 2 !.ic V(c)=0\n.ic V(d)=0\n.ic V(k)=0
TEXT -272 -208 Left 2 ;If the voltage across the resistor reaches 0.7 volts, the transistor T2 start to conduct.
TEXT -160 -168 Left 2 ;When the current in the load rises above a set maximum value, the transistor \nT2 begins to conduct and takes a bit of the transistor T1 base current, \nreducing the collector current IL (load current).
TEXT 352 112 Left 2 ;R = Vbe / ILmax
TEXT 224 0 Left 2 ;Voltage regulator with current limiter
TEXT 352 -40 Left 2 !.temp 25 60
TEXT 904 -24 Left 2 ;Q4 High, steal current+
