Version 4
SHEET 1 1808 680
WIRE 32 96 -64 96
WIRE 256 96 32 96
WIRE 256 112 256 96
WIRE -64 144 -64 96
WIRE 32 160 32 96
WIRE 208 192 160 192
WIRE 448 192 400 192
WIRE 624 192 528 192
WIRE 704 192 624 192
WIRE 768 192 704 192
WIRE 832 192 768 192
WIRE 912 192 832 192
WIRE 976 192 912 192
WIRE 1024 192 1024 112
WIRE 1024 192 976 192
WIRE 1072 192 1024 192
WIRE 1072 208 1072 192
WIRE 624 224 624 192
WIRE 704 224 704 192
WIRE 768 224 768 192
WIRE 832 224 832 192
WIRE 912 224 912 192
WIRE 976 224 976 192
WIRE 256 256 256 208
WIRE 256 256 160 256
WIRE 400 256 400 192
WIRE 400 256 256 256
WIRE 560 256 432 256
WIRE -64 288 -64 224
WIRE -32 288 -64 288
WIRE 32 288 32 224
WIRE 32 288 -32 288
WIRE 560 288 432 288
WIRE 624 304 624 288
WIRE 704 304 704 288
WIRE 768 304 768 288
WIRE 832 304 832 288
WIRE 912 304 912 288
WIRE 976 304 976 288
WIRE 1072 304 1072 288
WIRE -32 320 -32 288
WIRE 256 320 256 256
WIRE 528 368 528 352
WIRE 592 368 528 368
WIRE 736 368 656 368
WIRE 816 368 736 368
WIRE 880 368 816 368
WIRE 992 368 880 368
WIRE 208 400 144 400
WIRE 736 400 736 368
WIRE 816 400 816 368
WIRE 880 400 880 368
WIRE 1344 400 1296 400
WIRE 1376 400 1344 400
WIRE 1456 400 1376 400
WIRE 1520 400 1456 400
WIRE 1616 400 1520 400
WIRE 1696 400 1616 400
WIRE 992 416 992 368
WIRE 1008 416 992 416
WIRE 1616 416 1616 400
WIRE 448 432 448 352
WIRE 1376 432 1376 400
WIRE 1456 432 1456 400
WIRE 1520 432 1520 400
WIRE 352 448 288 448
WIRE 1344 464 1344 400
WIRE 1344 464 1296 464
WIRE 176 480 112 480
WIRE 736 480 736 464
WIRE 816 480 816 464
WIRE 880 480 880 464
WIRE 992 512 992 416
WIRE 1008 512 992 512
WIRE 1376 512 1376 496
WIRE 1456 512 1456 496
WIRE 1520 512 1520 496
WIRE 1616 512 1616 496
WIRE 176 560 112 560
WIRE 1152 624 1152 576
FLAG -32 320 0
FLAG 176 480 g1
FLAG 160 192 g1
FLAG 176 560 s1
FLAG 160 256 s1
FLAG 352 448 g2
FLAG 288 528 0
FLAG 256 416 0
FLAG 144 400 g2
FLAG 624 304 0
FLAG 1072 304 0
FLAG 704 304 0
FLAG 768 304 0
FLAG 832 304 0
FLAG 912 304 0
FLAG 976 304 0
FLAG 448 432 0
FLAG 736 480 0
FLAG 816 480 0
FLAG 880 480 0
FLAG 1616 512 0
FLAG 1024 112 Out1
FLAG 1376 512 0
FLAG 1456 512 0
FLAG 1520 512 0
FLAG 1152 624 0
SYMBOL voltage -64 128 R0
WINDOW 123 0 0 Left 0
WINDOW 39 0 0 Left 0
SYMATTR InstName V1
SYMATTR Value 20
SYMBOL cap 16 160 R0
SYMATTR InstName C2
SYMATTR Value 1µ
SYMATTR SpiceLine Irms=10m
SYMBOL voltage 112 464 R0
WINDOW 123 0 0 Left 0
WINDOW 39 0 0 Left 0
WINDOW 3 49 99 Left 2
SYMATTR InstName V2
SYMATTR Value PULSE(0 15 0 1n 1n {D/fs} {1/fs})
SYMBOL nmos 208 112 R0
SYMATTR InstName M1
SYMATTR Value Si7336ADP
SYMBOL ind2 544 176 R90
WINDOW 0 5 56 VBottom 2
WINDOW 3 32 56 VTop 2
SYMATTR InstName L1
SYMATTR Value 6.8µ
SYMATTR Type ind
SYMBOL nmos 208 320 R0
SYMATTR InstName M2
SYMATTR Value Si7336ADP
SYMBOL voltage 288 432 R0
WINDOW 123 0 0 Left 0
WINDOW 39 0 0 Left 0
WINDOW 3 49 99 Left 2
SYMATTR InstName V3
SYMATTR Value PULSE(0 15 {D/fs} 1n 1n {(1-D)/fs} {1/fs})
SYMBOL cap 608 224 R0
SYMATTR InstName C1
SYMATTR Value 22µ
SYMBOL res 1056 192 R0
SYMATTR InstName R1
SYMATTR Value 1
SYMBOL cap 688 224 R0
SYMATTR InstName C3
SYMATTR Value 22µ
SYMBOL cap 752 224 R0
SYMATTR InstName C4
SYMATTR Value 22µ
SYMBOL cap 816 224 R0
SYMATTR InstName C5
SYMATTR Value 22µ
SYMBOL cap 896 224 R0
SYMATTR InstName C6
SYMATTR Value 22µ
SYMBOL cap 960 224 R0
SYMATTR InstName C7
SYMATTR Value 22µ
SYMBOL ind2 432 368 R270
WINDOW 0 32 56 VTop 2
WINDOW 3 5 56 VBottom 2
SYMATTR InstName L2
SYMATTR Value 6.8µ
SYMATTR Type ind
SYMBOL schottky 592 384 R270
WINDOW 0 32 32 VTop 2
WINDOW 3 0 32 VBottom 2
SYMATTR InstName D1
SYMATTR Value 1N5817
SYMATTR Description Diode
SYMATTR Type diode
SYMBOL cap 720 400 R0
SYMATTR InstName C8
SYMATTR Value 22µ
SYMBOL cap 800 400 R0
SYMATTR InstName C9
SYMATTR Value 22µ
SYMBOL cap 864 400 R0
SYMATTR InstName C10
SYMATTR Value 22µ
SYMBOL res 1600 400 R0
SYMATTR InstName R2
SYMATTR Value 1
SYMBOL PowerProducts\\LT1962-1.5 1152 464 R0
SYMATTR InstName U1
SYMBOL cap 1360 432 R0
SYMATTR InstName C11
SYMATTR Value 22µ
SYMBOL cap 1440 432 R0
SYMATTR InstName C12
SYMATTR Value 22µ
SYMBOL cap 1504 432 R0
SYMATTR InstName C13
SYMATTR Value 22µ
TEXT -152 480 Left 2 !.param D=0.25\n.param fs=250k
TEXT -96 440 Left 2 !.tran 0 3.2m 3m
TEXT 544 144 Left 2 !K L1 L2 1
TEXT 1536 360 Left 2 ;1V
TEXT 1096 168 Left 2 ;even if out1 changes, out2 =1v
TEXT 1336 320 Left 2 ;I CHANGED DUTY CYCLE, BUT 1V CONST
