Version 4
SHEET 1 880 680
WIRE 240 64 64 64
WIRE 240 80 240 64
WIRE 288 80 240 80
WIRE 400 80 352 80
WIRE 288 112 240 112
WIRE 512 112 352 112
WIRE 112 160 48 160
WIRE 368 160 176 160
WIRE 400 176 400 80
WIRE 512 176 400 176
WIRE 112 192 48 192
WIRE 240 192 240 112
WIRE 240 192 176 192
WIRE 368 192 368 160
WIRE 512 192 368 192
FLAG 64 64 Cin
IOPIN 64 64 In
FLAG 48 160 A
IOPIN 48 160 In
FLAG 48 192 B
IOPIN 48 192 In
FLAG 512 112 S
IOPIN 512 112 Out
FLAG 576 176 C
IOPIN 576 176 Out
SYMBOL HalfAdder 144 176 R0
SYMATTR InstName X1
SYMBOL HalfAdder 320 96 R0
SYMATTR InstName X2
SYMBOL Digital\\or 544 128 R0
SYMATTR InstName A1
