Version 4
SHEET 1 1116 760
WIRE -112 -256 -128 -256
WIRE -96 -256 -112 -256
WIRE 0 -256 -16 -256
WIRE -96 -208 -144 -208
WIRE -464 -112 -544 -112
WIRE -368 -112 -464 -112
WIRE -272 -112 -368 -112
WIRE -128 -112 -128 -256
WIRE -128 -112 -272 -112
WIRE -96 -112 -128 -112
WIRE 0 -112 0 -256
WIRE 192 -112 0 -112
WIRE 256 -112 192 -112
WIRE 416 -112 336 -112
WIRE 464 -112 416 -112
WIRE 608 -112 544 -112
WIRE 656 -112 608 -112
WIRE 720 -112 656 -112
WIRE 832 -112 720 -112
WIRE 192 -80 192 -112
WIRE 720 -80 720 -112
WIRE 832 -80 832 -112
WIRE -544 -64 -544 -112
WIRE -144 -16 -144 -208
WIRE -80 -16 -80 -64
WIRE -80 -16 -144 -16
WIRE -368 0 -368 -112
WIRE 144 0 16 0
WIRE 192 16 128 16
WIRE 720 16 720 -16
WIRE 832 16 832 0
WIRE 192 32 192 16
WIRE -80 48 -80 -16
WIRE 160 48 -80 48
WIRE 304 48 224 48
WIRE -304 128 -336 128
WIRE 192 128 192 112
WIRE 192 128 -240 128
WIRE 16 144 16 0
WIRE 128 144 128 16
WIRE 192 144 192 128
WIRE 304 144 304 48
WIRE -464 160 -464 -112
WIRE -272 176 -272 -112
WIRE -176 176 -272 176
WIRE -272 192 -272 176
WIRE -176 224 -176 176
WIRE -48 224 -176 224
WIRE 416 224 416 -112
WIRE 416 224 368 224
WIRE 656 256 656 -112
WIRE -48 272 -272 272
WIRE 608 272 608 -112
WIRE 608 272 368 272
WIRE -48 320 -176 320
WIRE 512 320 368 320
WIRE -464 336 -464 240
WIRE -400 336 -464 336
WIRE -336 336 -336 128
WIRE -176 368 -176 320
WIRE -48 368 -176 368
WIRE 416 368 368 368
WIRE 512 368 512 320
WIRE 512 368 480 368
WIRE 576 368 512 368
WIRE -48 416 -96 416
WIRE 496 416 368 416
WIRE -272 464 -272 272
WIRE 656 464 656 336
WIRE 656 464 368 464
WIRE 656 496 656 464
WIRE 416 512 368 512
WIRE 448 512 416 512
WIRE 576 512 528 512
WIRE -176 528 -176 368
WIRE -96 576 -96 416
WIRE 576 576 576 512
WIRE 144 592 144 576
WIRE 256 592 256 576
WIRE 416 592 416 512
WIRE 656 592 656 576
WIRE -464 672 -464 336
WIRE -368 672 -368 64
WIRE -368 672 -464 672
WIRE -272 672 -272 544
WIRE -272 672 -368 672
WIRE -176 672 -176 592
WIRE -176 672 -272 672
WIRE -96 672 -96 656
WIRE -96 672 -176 672
WIRE 16 672 16 576
WIRE 16 672 -96 672
WIRE 144 672 144 656
WIRE 144 672 16 672
WIRE 256 672 256 656
WIRE 256 672 144 672
WIRE 416 672 416 656
WIRE 416 672 256 672
WIRE 576 672 576 640
WIRE 576 672 416 672
FLAG -544 -64 0
FLAG 576 368 0
FLAG 496 416 pg
FLAG 720 16 0
FLAG 832 16 0
FLAG 832 -112 OUT
FLAG 192 -112 SW
FLAG 656 592 0
SYMBOL PowerProducts\\LT8709 160 352 R0
SYMATTR InstName U1
SYMBOL voltage -464 144 R0
WINDOW 123 0 0 Left 0
WINDOW 39 24 126 Left 2
SYMATTR InstName V1
SYMATTR Value 24
SYMATTR SpiceLine Rser=1m
SYMBOL polcap -384 0 R0
WINDOW 3 24 56 Left 2
SYMATTR InstName C1
SYMATTR Value 120µ
SYMATTR Description Capacitor
SYMATTR Type cap
SYMATTR SpiceLine V=2.5 Irms=3.72678 Rser=0.018 Lser=0 mfg="KEMET" pn="A700D127M2R5ATE018" type="Al electrolytic"
SYMBOL cap 128 592 R0
SYMATTR InstName C2
SYMATTR Value 68n
SYMBOL cap 240 592 R0
SYMATTR InstName C3
SYMATTR Value 10n
SYMBOL res -112 560 R0
SYMATTR InstName R1
SYMATTR Value 143k
SYMBOL cap -192 528 R0
SYMATTR InstName C4
SYMATTR Value 2.2µ
SYMBOL res -288 448 R0
SYMATTR InstName R2
SYMATTR Value 10k
SYMBOL res -288 176 R0
SYMATTR InstName R3
SYMATTR Value 62.5k
SYMBOL cap 480 352 R90
WINDOW 0 0 32 VBottom 2
WINDOW 3 32 32 VTop 2
SYMATTR InstName C5
SYMATTR Value 2µ
SYMBOL nmos 144 -80 R0
SYMATTR InstName M2
SYMATTR Value BSC018NE2LS
SYMBOL res 176 16 R0
SYMATTR InstName R4
SYMATTR Value 2m
SYMBOL Misc\\jumper -272 64 R0
WINDOW 0 61 38 Invisible 2
SYMATTR InstName X1
SYMBOL Misc\\jumper -368 272 R0
WINDOW 0 61 38 Invisible 2
SYMATTR InstName X2
SYMBOL Misc\\jumper 192 -16 R0
WINDOW 0 61 38 Invisible 2
SYMATTR InstName X3
SYMBOL ind 352 -128 R90
WINDOW 0 5 56 VBottom 2
WINDOW 3 32 56 VTop 2
SYMATTR InstName L1
SYMATTR Value 7.3µ
SYMBOL res 560 -128 R90
WINDOW 0 0 56 VBottom 2
WINDOW 3 32 56 VTop 2
SYMATTR InstName R5
SYMATTR Value 4m
SYMBOL cap 704 -80 R0
SYMATTR InstName C6
SYMATTR Value 300µ
SYMBOL res 816 -96 R0
SYMATTR InstName R6
SYMATTR Value R=if(time>3m,1.5,3)
SYMBOL res 640 480 R0
SYMATTR InstName R7
SYMATTR Value 4.99K
SYMBOL res 640 240 R0
SYMATTR InstName R8
SYMATTR Value 33K
SYMBOL cap 400 592 R0
SYMATTR InstName C7
SYMATTR Value 100p
SYMBOL res 544 496 R90
WINDOW 0 0 56 VBottom 2
WINDOW 3 32 56 VTop 2
SYMATTR InstName R9
SYMATTR Value 5.9K
SYMBOL cap 560 576 R0
SYMATTR InstName C8
SYMATTR Value 2.2n
SYMBOL pmos 0 -64 M270
SYMATTR InstName M3
SYMATTR Value AO3423
SYMBOL pmos -16 -208 M270
SYMATTR InstName M4
SYMATTR Value AO3423
TEXT -192 720 Left 2 ;250kHz
TEXT -352 -168 Left 2 ;Switches
TEXT -280 -144 Left 2 ;Switch losses
TEXT 336 64 Left 2 ;Conducation losses
TEXT -566 742 Left 2 !.tran 10m
TEXT -200 -240 Left 2 ;1W
TEXT -224 -192 Left 2 ;1W
TEXT 64 -40 Left 2 ;0.5W
TEXT 464 -176 Left 2 ;265mW
TEXT 40 96 Left 2 ;71mW
TEXT 64 -288 Left 5 ;96.8% Efficiency
TEXT 48 -192 Left 5 ;NEGATIVE BUCK CONVERTER
