Version 4
SHEET 1 1268 680
WIRE -320 64 -320 0
WIRE -320 64 -368 64
WIRE -288 64 -320 64
WIRE -224 64 -288 64
WIRE -64 64 -112 64
WIRE 32 64 0 64
WIRE 464 64 320 64
WIRE 560 64 464 64
WIRE 624 64 560 64
WIRE 560 112 560 64
WIRE -368 144 -368 64
WIRE -64 144 -64 64
WIRE 32 144 0 144
WIRE 352 144 320 144
WIRE -112 160 -112 144
WIRE -192 176 -192 16
WIRE -176 176 -176 16
WIRE -224 240 -224 144
WIRE 32 240 -224 240
WIRE 608 240 320 240
WIRE 688 240 608 240
WIRE 832 240 688 240
WIRE 32 336 -32 336
WIRE 384 336 320 336
WIRE -368 384 -368 224
WIRE -288 384 -288 64
WIRE 688 400 688 240
WIRE 608 416 608 240
WIRE 240 464 240 448
WIRE 304 464 240 464
WIRE 112 480 112 448
WIRE 240 480 240 464
WIRE 384 480 384 336
WIRE -368 576 -368 464
WIRE -288 576 -288 448
WIRE -288 576 -368 576
WIRE -32 576 -32 336
WIRE -32 576 -288 576
WIRE 112 576 112 544
WIRE 112 576 -32 576
WIRE 240 576 240 544
WIRE 240 576 112 576
WIRE 384 576 384 544
WIRE 384 576 240 576
WIRE 464 576 464 128
WIRE 464 576 384 576
WIRE 560 576 560 192
WIRE 560 576 464 576
WIRE 608 576 608 480
WIRE 608 576 560 576
WIRE 688 576 688 480
WIRE 688 576 608 576
WIRE -32 608 -32 576
FLAG -320 0 In
FLAG -112 160 0
FLAG 832 240 vOUT
FLAG 352 144 vBAToF
FLAG 304 464 Vstore
FLAG 624 64 Vbat
FLAG -32 608 0
SYMBOL PowerProducts\\LTC3107 176 224 R0
SYMATTR InstName U1
SYMBOL voltage -368 368 R0
SYMATTR InstName V1
SYMATTR Value 50m
SYMBOL res -352 240 R180
WINDOW 0 36 76 Left 2
WINDOW 3 36 40 Left 2
SYMATTR InstName R1
SYMATTR Value 10m
SYMBOL cap -304 384 R0
SYMATTR InstName C1
SYMATTR Value 100µ
SYMBOL ind2 -240 160 M180
WINDOW 0 36 80 Left 2
WINDOW 3 -42 122 Left 2
SYMATTR InstName L1
SYMATTR Value 7.5µ
SYMATTR Type ind
SYMBOL ind2 -96 160 R180
WINDOW 0 36 80 Left 2
WINDOW 3 10 113 Left 2
SYMATTR InstName L2
SYMATTR Value 75m
SYMATTR Type ind
SYMBOL cap 0 48 R90
WINDOW 0 0 32 VBottom 2
WINDOW 3 32 32 VTop 2
SYMATTR InstName C2
SYMATTR Value 1n
SYMBOL cap 0 128 R90
WINDOW 0 0 32 VBottom 2
WINDOW 3 32 32 VTop 2
SYMATTR InstName C3
SYMATTR Value 330p
SYMATTR SpiceLine Rpar=500k
SYMBOL cap 96 480 R0
SYMATTR InstName C4
SYMATTR Value 10µ
SYMBOL cap 224 480 R0
SYMATTR InstName C5
SYMATTR Value 10µ
SYMBOL cap 368 480 R0
SYMATTR InstName C6
SYMATTR Value 10µ
SYMBOL cap 592 416 R0
SYMATTR InstName C7
SYMATTR Value 50µ
SYMBOL res 672 384 R0
SYMATTR InstName R2
SYMATTR Value R=if(time>800ms,15k,36k)
SYMBOL voltage 560 96 R0
WINDOW 123 0 0 Left 0
WINDOW 39 33 68 Left 2
SYMATTR InstName V2
SYMATTR Value 3.6V
SYMATTR SpiceLine Rser=1
SYMBOL cap 448 64 R0
SYMATTR InstName C8
SYMATTR Value 10µ
TEXT -152 16 Left 2 ;1:100
TEXT -216 288 Left 2 !K L1 L2 1
TEXT -480 -80 Left 5 ;Power Electronics for Energy Harvesting Systems
TEXT -482 634 Left 2 !.tran 1
